Results/base-now/powerflow/line_summaries.csv
,active_line_losses_mw,reactive_line_losses_mvar,apparent_line_losses_mva
0,0.0562265241854266,-0.4078059803188607,0.47931239375819545
1,0.047787345560355826,-0.4146540563937103,0.47296927793415655
2,0.0469925347689822,-0.4153348465020279,0.4723584024565961
3,0.045296218062883746,-0.4167924540721471,0.47121355646839
4,0.04391520142735626,-0.4179704567561763,0.47032415331887945
5,0.04232106806322246,-0.41927936112584097,0.469229674682971
6,0.0431603200303456,-0.418561082562019,0.4698954172385059
7,0.04729955167467162,-0.41519325730212986,0.47299206496756857
8,0.047401672497961025,-0.415141079406517,0.47310251938570813
9,0.04914075021382927,-0.41368377438486553,0.47442658327510484
10,0.05809532314277109,-0.4064283905767267,0.48106852305041087
11,0.06170287891734641,-0.4034804058666783,0.4836548460821813
12,0.06692804199855595,-0.39932170419177476,0.4876929059534148
13,0.06427603261449809,-0.40138293765519534,0.4855557291764017
14,0.06603383443539418,-0.3999353847562132,0.48676687940382624
15,0.06949607721272012,-0.39719877393250236,0.48953283101528905
16,0.07489676862685357,-0.39296100144429097,0.49404928428845424
17,0.08063406434008073,-0.38849263381594523,0.4985859702277356
18,0.07394497863045311,-0.3937355250490918,0.4930402209608685
19,0.07548339347044879,-0.3924800737445791,0.49426623535096187
20,0.0778808342588466,-0.39059747215207835,0.49618246894444873
21,0.0726835724260389,-0.39475303129907235,0.49226032551488064
22,0.06447389584132747,-0.4012342002250353,0.4857457256364563
23,0.055322329859967954,-0.4086056016494328,0.47886669721141045
24,0.04978362737882726,-0.4131051142610664,0.4748278162967757
25,0.04596883905507701,-0.4161988122143172,0.47197202541500266
26,0.04075508182029921,-0.42054265045156475,0.46830587978450705
27,0.04081771271212037,-0.4204578387202525,0.46822072618348304
28,0.04456655268772307,-0.4173474772516437,0.4710442971550365
29,0.04738346698085871,-0.41507999389010425,0.4729947558016674
30,0.05781184646055193,-0.4065529270178294,0.4806880192201729
31,0.06805867238335038,-0.3983223029381337,0.4884875758455398
32,0.06606561593373542,-0.39988355575539314,0.48686476031351167
33,0.0745438202240857,-0.3932697536566764,0.49377941842748574
34,0.07089082006071976,-0.396116586073503,0.49067885407286727
35,0.07015307317108818,-0.3966983658515343,0.4901078459003888
36,0.07446659625275416,-0.39339791001863855,0.4936406880758
37,0.07632862813085717,-0.39191589178669595,0.4948922519024051
38,0.07428929080153854,-0.39351784482222696,0.49348588775144103
39,0.07733906953807566,-0.39101779160514566,0.4956103969251706
40,0.08845391641594796,-0.382145012894703,0.5043266018704464
41,0.09020743679563617,-0.3807354429206877,0.505506242260802
42,0.08730449601944479,-0.38312470562211626,0.5032467164648329
43,0.08728330157085076,-0.38303699857871787,0.5028652354894513
44,0.09408382898513584,-0.3777865238150352,0.508682493910931
45,0.08678016770838888,-0.3834235041358483,0.5025542171898926
46,0.07677602739513281,-0.3912474170997189,0.49455520717120144
47,0.06759623932019941,-0.3985800514077088,0.4875496067447476
48,0.061206634570836416,-0.403718543742725,0.48288390351256305
49,0.05421630387297466,-0.4093477333206325,0.47756318411564996
50,0.05467535558870044,-0.4090205545169946,0.47790177870148126
51,0.05191511523118299,-0.41126029581258106,0.4759114178472923
52,0.05257672046637536,-0.4106965923291539,0.47642901971335333
53,0.05507437771710835,-0.4087061827906369,0.47821714507044666
54,0.06756558512788015,-0.3986789489229088,0.48785382519653714
55,0.08281016956337664,-0.3866072751585537,0.49995616540253
56,0.08002350869550862,-0.3888733717325865,0.49804359498784806
57,0.07813339189170322,-0.39039155810072795,0.49663992938285234
58,0.07659227361997206,-0.39162410760280575,0.4952085969976297
59,0.07447454918275612,-0.39318199534523607,0.4933496340322532
60,0.07245243925136663,-0.3948426950321466,0.49206031609556294
61,0.06842197281320286,-0.39795591282593906,0.4885896688844451
62,0.07114756571593003,-0.3958109568919294,0.4906138746040101
63,0.07995021391396007,-0.38892640096045394,0.49766267419873966
64,0.08868503985960063,-0.38199903383385564,0.5042984294594921
65,0.09513925987690396,-0.37699029727898237,0.5095131624890311
66,0.09324444241527471,-0.37864537309628027,0.5080690784224567
67,0.08961104765883085,-0.38141973724009537,0.5051729382912554
68,0.09087727041930885,-0.38042108245329664,0.5061802488439179
69,0.08621316115156644,-0.38407023867582823,0.5023825734530053
70,0.07633850712831652,-0.3918454009697901,0.4947019630994278
71,0.06858161210786634,-0.3979612888314513,0.4885864608697717
72,0.06104305894879576,-0.4039072105556041,0.4826807736447399
73,0.05319576589539503,-0.4102365531746422,0.4767747423124913
74,0.052582134841998945,-0.4106766414180249,0.476239543099879
75,0.04904851330119807,-0.4135538961764194,0.4735965085997327
76,0.05028661584490194,-0.41254916214915816,0.47442497252175364
77,0.05587539268592766,-0.40805020358350635,0.4786816184362534
78,0.06788536865855108,-0.39852605506819433,0.4880959082000346
79,0.0852759185996898,-0.38480401749021576,0.5019377385702846
80,0.0842601245546946,-0.38553730163321115,0.5009578913922945
81,0.0799201421680845,-0.3889382954150288,0.49797798243838515
82,0.0862568485501151,-0.3840982166563899,0.5031639870338027
83,0.08023850210786665,-0.3888489431323488,0.49823019801187696
84,0.07524650550409442,-0.3926421402457538,0.4939943326745795
85,0.070586727015132,-0.39625062497887703,0.4903850861079537
86,0.07743968481987519,-0.39093451970764537,0.49581833445815765
87,0.08632770127073394,-0.3839985744451997,0.5029817699129429
88,0.0928733254603139,-0.378779941123373,0.5079424939728787
89,0.1038733296092278,-0.3703904201835841,0.5172228319185597
90,0.09609784195485206,-0.37636386563071006,0.5104974109009319
91,0.08794231431847192,-0.3826150957534371,0.5033796382356431
92,0.08896754877907978,-0.3818136663787263,0.5042303301127552
93,0.08429565164055518,-0.3854917418948249,0.5004911680563889
94,0.07907437588854321,-0.38967199243153516,0.4964360188813491
95,0.06835208298345402,-0.39815080991696966,0.4881211896629993
96,0.05929650262129846,-0.40538347067859726,0.48131460810013377
97,0.054710726933262385,-0.40904905656074925,0.47797350801383554
98,0.05186170197038406,-0.4114063332592431,0.47578188170638336
99,0.04942776173309886,-0.41338721753207264,0.47399928591351503
100,0.049677783906831655,-0.4131503086506721,0.4741601629560513
101,0.056096574382566315,-0.407994427822661,0.4790608257599527
102,0.06708061957480749,-0.39917528579091177,0.48742090155954215
103,0.08193068059688903,-0.38737007861978895,0.49899041237842967
104,0.084297650388589,-0.3855599718996558,0.5010585140865332
105,0.07542376095902599,-0.3924629381212796,0.4942600923896453
106,0.07276310971803417,-0.3944363056159901,0.49217574567630906
107,0.07682455555085528,-0.39125971277294475,0.4952596336969541
108,0.0721852187915271,-0.3948908889176206,0.49141760361750314
109,0.08091333924009345,-0.38816478523146036,0.4984678010527119
110,0.08753471679419896,-0.38292299222265075,0.5037336500948687
111,0.08838150872446034,-0.3822113391805305,0.5042436431794042
112,0.098191767633248,-0.3746259374419598,0.5122376893606514
113,0.09872742052169725,-0.3741933702328199,0.5124024547019636
114,0.09343340502736064,-0.3782480277262485,0.5077559727712976
115,0.09297537437091445,-0.37849982590949044,0.5071288031032205
116,0.08980534407714637,-0.38108162093358067,0.5046524121294612
117,0.08348528272869679,-0.3860952926187209,0.4998059870143187
118,0.08065047925295829,-0.3884072074535892,0.49788131790667384
119,0.07799658248079225,-0.3905079869745517,0.4958940836016111
120,0.06236201804420241,-0.40281693634680443,0.4834039676259491
121,0.060434062502263436,-0.40449260816102695,0.4822854222712124
122,0.058520727165211325,-0.4059323944400247,0.48071124248467006
123,0.057720129953763674,-0.4066170848383592,0.4801988155517145
124,0.05665625083631402,-0.40747856978209746,0.4793339255694576
125,0.06036875735850607,-0.40454656360917046,0.48223898913419744
126,0.06539008747748791,-0.40050470268841415,0.48610381781882667
127,0.07069989967707246,-0.3963658937512077,0.4901825621002546
128,0.07382023184369213,-0.39384218572639507,0.492551967444717
129,0.07939971474535877,-0.3894281398677425,0.496959661125974
130,0.09213217218876481,-0.37949048129321983,0.5073073427009522
131,0.09595208141166046,-0.37635387519497615,0.5099392810741068
132,0.10306597267887417,-0.3709040538789723,0.5159374645575376
133,0.09658084458982293,-0.3759176159940921,0.5106025943304209
134,0.0873017175192938,-0.3830721875371783,0.502727683506277
135,0.09660700353545629,-0.3759200059599988,0.5107732768643021
136,0.10252353371703053,-0.3712483275896965,0.5155325877790227
137,0.10533232764437028,-0.3690735374191442,0.5176683517571112
138,0.10411944400968583,-0.36992857881339963,0.5160843992604757
139,0.10125924278092524,-0.37209162831622716,0.5138033402608518
140,0.09680010401209965,-0.37569829643307784,0.5105638929200443
141,0.09458346406365585,-0.37734722601119525,0.5085841483692544
142,0.09053030490482208,-0.3805196945612409,0.5054463802094245
143,0.08493508158217353,-0.38493215862280794,0.5010617879542362
144,0.08252331801457666,-0.3868822524003622,0.49925859303186754
145,0.07679818228295712,-0.391376629189544,0.494782911931592
146,0.07618153915493073,-0.3918924784347652,0.4945712056041452
147,0.07027447887067723,-0.39647048092061105,0.4896350518591661
148,0.07247122132782552,-0.39474633656806296,0.4913715990930354
149,0.0761431487725091,-0.3919095742939003,0.49449318067384335
150,0.07784332743126662,-0.39049280383053414,0.4956220879885335
151,0.08368075412258248,-0.38592522735127643,0.5002406469975283
152,0.09305206698897758,-0.3786991861762942,0.5081013470743189
153,0.09835430737826949,-0.3744810161597991,0.5121293657984675
154,0.10851190735990413,-0.3666318824603912,0.5205031808214737
155,0.10966210407061755,-0.3656978686844149,0.5211682699876435
156,0.11210398322512272,-0.3638760853105534,0.5234628282744255
157,0.11571591305113109,-0.3611110561528789,0.5266811657701622
158,0.11437090276635468,-0.3621468137826661,0.5256142534418626
159,0.11183991325854765,-0.364032320940069,0.5232741504117547
160,0.11195759270466589,-0.363903358752587,0.5230100778587307
161,0.11505021748246173,-0.36159217465224897,0.5257915717219629
162,0.11331895404065218,-0.3627827176962289,0.5238214516176052
163,0.1117098286391073,-0.3641309660236412,0.5226817513769393
164,0.11352369500822151,-0.362851780012658,0.5247686563943682
165,0.1013530640007635,-0.37228961485410483,0.5147506140123368
166,0.08682418787431093,-0.3835212600127507,0.5026544405672506
167,0.07613886186033599,-0.39188993443851283,0.4941508233011105
168,0.06957125120953145,-0.3972118981306183,0.4894707370714101
169,0.06314639190999331,-0.4023507029368306,0.4845638770018038
170,0.06153675645438279,-0.40363594055134905,0.4834005434215466
171,0.06086751977333153,-0.404124854717152,0.4827863913617788
172,0.05957798435348123,-0.40508788053840494,0.48153522079486516
173,0.06379583747264916,-0.40182096989970173,0.48504735874495136
174,0.07634711964962958,-0.391860703465675,0.4949975498323658
175,0.09349142490010352,-0.37841892999458737,0.5087328587855812
176,0.09819870866720648,-0.37476736491849905,0.5127297984164896
177,0.09127349697924295,-0.38022700405968596,0.5071032957933328
178,0.0933532257995707,-0.37870956756431745,0.5088761036846915
179,0.08277332348613473,-0.3868395137676967,0.49984398626411464
180,0.07567280254448867,-0.39226557762532493,0.49428703575944105
181,0.06846642558177246,-0.3979039813358329,0.4888077912044288
182,0.07699098922803861,-0.3912418057353294,0.4953005732806578
183,0.0849436821792724,-0.38489798651563517,0.5013526889851554
184,0.10297454060863553,-0.37087822779713314,0.516118295439933
185,0.10778758899848473,-0.3671777870273712,0.5200254197906001
186,0.10024939567115468,-0.3728752793595935,0.5130217027883439
187,0.10675636818473787,-0.3678212297777383,0.5182343302167253
188,0.10403020151160064,-0.3699866753647628,0.5162655208269645
189,0.10490024441389006,-0.3692661891409708,0.5169742184737032
190,0.095369071406469,-0.3767392370765399,0.5094489083401111
191,0.08441821792576003,-0.3854006807660571,0.5008162743208763
192,0.07349877519004078,-0.39403815758596317,0.49234670999433156
193,0.07431647267453347,-0.39336144316752075,0.4932185067420891
194,0.07329114914806752,-0.3942316635001021,0.49249170184930374
195,0.06669062730003693,-0.39940438264323075,0.48699433845647694
196,0.0662305049886843,-0.39981717222421187,0.4867914235565375
197,0.07294920303447482,-0.39445817281920864,0.4920343979207044
198,0.08815467829464854,-0.3824573318045461,0.5041184870546804
199,0.10292300516847899,-0.37100690245371193,0.5163446974016391
...
